Version 4
SHEET 1 1568 748
WIRE -496 -496 -624 -496
WIRE -496 -448 -496 -496
WIRE -624 -368 -624 -496
WIRE -496 -288 -496 -368
WIRE 464 -272 416 -272
WIRE -368 -256 -432 -256
WIRE -208 -256 -288 -256
WIRE 464 -256 464 -272
WIRE 128 -176 32 -176
WIRE 288 -176 208 -176
WIRE 464 -176 464 -192
WIRE 288 -128 288 -176
WIRE 416 -128 416 -272
WIRE -496 -96 -496 -208
WIRE -432 -96 -432 -256
WIRE -208 -64 -208 -256
WIRE -112 -64 -208 -64
WIRE -16 -64 -112 -64
WIRE 32 -64 32 -176
WIRE 32 -64 -16 -64
WIRE 48 -64 32 -64
WIRE 144 -64 112 -64
WIRE 176 -64 144 -64
WIRE 208 -64 176 -64
WIRE 544 -64 496 -64
WIRE 688 -64 624 -64
WIRE 720 -64 688 -64
WIRE 1072 -64 1008 -64
WIRE 1216 -64 1072 -64
WIRE -496 16 -496 -32
WIRE 528 16 496 16
WIRE 640 16 528 16
WIRE 640 32 640 16
WIRE 688 32 688 -64
WIRE 720 32 688 32
WIRE 1072 32 1072 0
WIRE 1216 32 1216 16
WIRE -496 64 -496 16
WIRE 176 96 176 -64
WIRE 208 96 176 96
WIRE 528 96 496 96
WIRE -432 112 -432 -32
WIRE 528 128 528 96
WIRE 640 128 640 96
WIRE 864 128 864 96
WIRE 1216 144 1216 112
WIRE -496 192 -496 144
WIRE 352 208 352 160
WIRE -496 240 -496 192
WIRE 528 240 528 208
FLAG 464 -176 0
FLAG 1008 -64 OUT
FLAG -16 -64 VPZTin
FLAG -624 -368 0
FLAG 1216 144 0
FLAG -432 112 0
FLAG 144 -64 VC1in
FLAG 352 208 0
FLAG 528 240 0
FLAG 640 128 0
FLAG 1072 32 0
FLAG 864 128 0
DATAFLAG -496 192 ""
DATAFLAG -496 16 ""
DATAFLAG -112 -64 ""
SYMBOL cap 48 -48 R270
WINDOW 0 32 32 VTop 2
WINDOW 3 0 32 VBottom 2
SYMATTR InstName C2
SYMATTR Value 1n
SYMBOL cap 448 -256 R0
SYMATTR InstName C4
SYMATTR Value 1µ
SYMBOL PiezoElement -464 -64 R90
SYMATTR InstName X1
SYMATTR Value L=0.005 S=A
SYMBOL SubstFin -496 96 R270
WINDOW 0 -3 -64 Center 2
SYMATTR InstName PCB
SYMATTR Value L=1.5m S=A
SYMATTR Value2 d=1.58K V=4.5K
SYMATTR SpiceLine Nv=1m F=FREQ
SYMBOL SubstInf -496 288 R90
SYMATTR InstName X3
SYMATTR Value S=A
SYMATTR Value2 d=1K V=1.480K
SYMBOL voltage -384 -256 R270
WINDOW 0 -32 56 VBottom 2
WINDOW 3 32 56 VTop 2
WINDOW 123 0 0 Left 2
WINDOW 39 0 0 Left 2
SYMATTR InstName PZTin
SYMATTR Value 0
SYMBOL SubstFin -496 -256 R270
SYMATTR Value L=100m S=A
SYMATTR SpiceLine Nv=1m F=FREQ
SYMATTR InstName X2
SYMBOL voltage 1216 -80 R0
WINDOW 0 24 96 Left 2
WINDOW 3 24 16 Left 2
WINDOW 123 0 0 Left 2
WINDOW 39 0 0 Left 2
SYMATTR InstName PWRout
SYMATTR Value 0
SYMBOL res 1200 16 R0
SYMATTR InstName R1
SYMATTR Value 20K
SYMBOL current -496 -448 R0
WINDOW 3 24 28 Left 2
WINDOW 123 24 56 Left 2
WINDOW 39 0 0 Left 2
SYMATTR Value SINE(0 1.0e-8 0.503e6)
SYMATTR InstName I1
SYMBOL PowerProducts/LT8410 352 16 R0
SYMATTR InstName U2
SYMBOL ind 112 -160 R270
WINDOW 0 32 56 VTop 2
WINDOW 3 5 56 VBottom 2
SYMATTR InstName L1
SYMATTR Value 100µ
SYMBOL res 512 0 R0
SYMATTR InstName R3
SYMATTR Value 604k
SYMBOL res 512 112 R0
SYMATTR InstName R4
SYMATTR Value 412k
SYMBOL cap 624 32 R0
SYMATTR InstName C1
SYMATTR Value 10n
SYMBOL cap 1056 -64 R0
SYMATTR InstName C3
SYMATTR Value 1µ
SYMBOL PowerProducts/LT3020 864 -32 R0
SYMATTR InstName U1
SYMBOL voltage 528 -64 R270
WINDOW 0 32 56 VTop 2
WINDOW 3 -32 56 VBottom 2
SYMATTR InstName BOOSTout
SYMATTR Value 0
TEXT 760 424 Left 2 !.tran 0 1.0 0.0
TEXT 760 376 Left 2 !.ic V(OUT)=0.0
TEXT -1008 -448 Left 2 !.param A=1e-4 FREQ=0.503
