Version 4
SHEET 1 1568 748
WIRE -496 -496 -624 -496
WIRE -496 -448 -496 -496
WIRE -624 -368 -624 -496
WIRE -496 -288 -496 -368
WIRE -368 -256 -432 -256
WIRE -208 -256 -288 -256
WIRE -432 -144 -432 -256
WIRE -336 -144 -432 -144
WIRE -496 -96 -496 -208
WIRE -432 -96 -432 -144
WIRE -336 -96 -336 -144
WIRE -208 -64 -208 -256
WIRE -112 -64 -208 -64
WIRE -16 -64 -112 -64
WIRE 80 -64 -16 -64
WIRE 208 -64 160 -64
WIRE 240 -64 208 -64
WIRE 592 -64 528 -64
WIRE 736 -64 592 -64
WIRE -496 16 -496 -32
WIRE -432 16 -432 -32
WIRE -336 16 -336 -32
WIRE -336 16 -432 16
WIRE 208 32 208 -64
WIRE 240 32 208 32
WIRE 592 32 592 0
WIRE 736 32 736 16
WIRE -496 64 -496 16
WIRE -432 112 -432 16
WIRE 384 144 384 96
WIRE 736 144 736 112
WIRE -496 192 -496 144
WIRE -496 240 -496 192
FLAG 528 -64 OUT
FLAG -16 -64 VPZTin
FLAG -624 -368 0
FLAG 736 144 0
FLAG -432 112 0
FLAG 384 144 0
FLAG 592 32 0
DATAFLAG -496 192 ""
DATAFLAG -496 16 ""
DATAFLAG -112 -64 ""
SYMBOL PiezoElement -464 -64 R90
SYMATTR InstName X1
SYMATTR Value L=0.001 S=A
SYMBOL SubstFin -496 96 R270
WINDOW 0 -3 -64 Center 2
SYMATTR InstName PCB
SYMATTR Value L=1.5m S=A
SYMATTR Value2 d=1.58K V=4.5K
SYMATTR SpiceLine Nv=1m F=FREQ
SYMBOL SubstInf -496 288 R90
SYMATTR InstName X3
SYMATTR Value S=A
SYMATTR Value2 d=1K V=1.480K
SYMBOL voltage -384 -256 R270
WINDOW 0 -32 56 VBottom 2
WINDOW 3 32 56 VTop 2
WINDOW 123 0 0 Left 2
WINDOW 39 0 0 Left 2
SYMATTR InstName PZTin
SYMATTR Value 0
SYMBOL SubstFin -496 -256 R270
SYMATTR Value L=100m S=A
SYMATTR SpiceLine Nv=1m F=FREQ
SYMATTR InstName X2
SYMBOL voltage 736 -80 R0
WINDOW 0 24 96 Left 2
WINDOW 3 24 16 Left 2
WINDOW 123 0 0 Left 2
WINDOW 39 0 0 Left 2
SYMATTR InstName PWRout
SYMATTR Value 0
SYMBOL res 720 16 R0
SYMATTR InstName R1
SYMATTR Value 20K
SYMBOL current -496 -448 R0
WINDOW 3 24 28 Left 2
WINDOW 123 24 56 Left 2
WINDOW 39 0 0 Left 2
SYMATTR Value SINE(0 1.0e-6 0.503e6)
SYMATTR InstName I1
SYMBOL cap 576 -64 R0
SYMATTR InstName C3
SYMATTR Value 10µ
SYMBOL PowerProducts/LT3020 384 -32 R0
SYMATTR InstName U1
SYMBOL cap -352 -96 R0
SYMATTR InstName C1
SYMATTR Value 1µ
SYMBOL ind 64 -48 R270
WINDOW 0 32 56 VTop 2
WINDOW 3 5 56 VBottom 2
SYMATTR InstName L1
SYMATTR Value 100n
TEXT 760 424 Left 2 !.tran 0 1.0 0.0
TEXT 760 376 Left 2 !.ic V(OUT)=0.0
TEXT -1008 -448 Left 2 !.param A=1e-6 FREQ=0.503
