Version 4
SHEET 1 1172 748
WIRE -496 -496 -624 -496
WIRE -496 -448 -496 -496
WIRE -624 -368 -624 -496
WIRE -496 -288 -496 -368
WIRE -368 -256 -432 -256
WIRE -208 -256 -288 -256
WIRE -496 -96 -496 -208
WIRE -432 -96 -432 -256
WIRE -208 -64 -208 -256
WIRE -112 -64 -208 -64
WIRE -16 -64 -112 -64
WIRE 112 -64 -16 -64
WIRE 112 -32 112 -64
WIRE 272 -32 160 -32
WIRE 288 -32 272 -32
WIRE 368 -32 352 -32
WIRE 672 -32 624 -32
WIRE 976 -32 672 -32
WIRE 672 -16 672 -32
WIRE -496 16 -496 -32
WIRE -496 64 -496 16
WIRE 272 64 272 -32
WIRE 288 64 272 64
WIRE 368 64 352 64
WIRE 672 64 672 48
WIRE 976 80 976 48
WIRE 160 96 160 48
WIRE -432 112 -432 -32
WIRE 112 160 112 48
WIRE 368 160 112 160
WIRE 640 160 624 160
WIRE 672 160 640 160
WIRE 880 160 672 160
WIRE 672 176 672 160
WIRE -496 192 -496 144
WIRE 976 192 976 160
WIRE -496 240 -496 192
WIRE 368 256 320 256
WIRE 640 256 640 160
WIRE 640 256 624 256
WIRE 672 256 672 240
WIRE 880 256 880 240
WIRE 368 352 352 352
WIRE 672 352 624 352
WIRE 672 368 672 352
WIRE 880 368 880 336
WIRE 320 448 320 256
WIRE 368 448 320 448
WIRE 640 448 624 448
WIRE 672 448 672 432
WIRE 320 464 320 448
WIRE 496 512 496 496
WIRE 320 544 320 528
FLAG 496 512 0
FLAG 320 544 0
FLAG 352 352 0
FLAG 672 64 0
FLAG 672 256 0
FLAG 672 448 0
FLAG 672 160 OUT
FLAG -16 -64 VPZTin
FLAG 160 96 0
FLAG -624 -368 0
FLAG 880 368 0
FLAG -432 112 0
FLAG 976 192 0
FLAG 352 -32 VC1in
FLAG 352 64 VC2in
DATAFLAG -496 192 ""
DATAFLAG -496 16 ""
DATAFLAG -112 -64 ""
SYMBOL LTC3108 496 208 R0
SYMATTR InstName U1
SYMBOL cap 304 464 R0
SYMATTR InstName C7
SYMATTR Value 1µ
SYMBOL cap 288 -16 R270
WINDOW 0 32 32 VTop 2
WINDOW 3 0 32 VBottom 2
SYMATTR InstName C2
SYMATTR Value 1µ
SYMBOL cap 288 80 R270
WINDOW 0 32 32 VTop 2
WINDOW 3 0 32 VBottom 2
SYMATTR InstName C3
SYMATTR Value 1µ
SYMBOL cap 656 -16 R0
SYMATTR InstName C4
SYMATTR Value 1m
SYMBOL cap 656 176 R0
SYMATTR InstName C5
SYMATTR Value 470µ
SYMBOL cap 656 368 R0
SYMATTR InstName C6
SYMATTR Value 2.2µ
SYMBOL PiezoElement -464 -64 R90
SYMATTR InstName X1
SYMATTR Value L=0.005 S=A
SYMBOL SubstFin -496 96 R270
WINDOW 0 -3 -64 Center 2
SYMATTR InstName PCB
SYMATTR Value L=1.5m S=A
SYMATTR Value2 d=1.58K V=4.5K
SYMATTR SpiceLine Nv=1m F=FREQ
SYMBOL SubstInf -496 288 R90
SYMATTR InstName X3
SYMATTR Value S=A
SYMATTR Value2 d=1K V=1.480K
SYMBOL voltage -384 -256 R270
WINDOW 0 -32 56 VBottom 2
WINDOW 3 32 56 VTop 2
WINDOW 123 0 0 Left 2
WINDOW 39 0 0 Left 2
SYMATTR InstName PZTin
SYMATTR Value 0
SYMBOL SubstFin -496 -256 R270
SYMATTR Value L=100m S=A
SYMATTR SpiceLine Nv=1m F=FREQ
SYMATTR InstName X2
SYMBOL voltage 880 144 R0
WINDOW 0 24 96 Left 2
WINDOW 3 24 16 Left 2
WINDOW 123 0 0 Left 2
WINDOW 39 0 0 Left 2
SYMATTR InstName PWRout
SYMATTR Value 0
SYMBOL res 864 240 R0
SYMATTR InstName R1
SYMATTR Value 100K
SYMBOL voltage 976 -48 R0
WINDOW 0 24 96 Left 2
WINDOW 3 24 16 Left 2
WINDOW 123 0 0 Left 2
WINDOW 39 0 0 Left 2
SYMATTR InstName STORout
SYMATTR Value 0
SYMBOL res 960 64 R0
SYMATTR InstName R2
SYMATTR Value 100K
SYMBOL ind2 176 64 R180
WINDOW 0 2 76 Right 2
WINDOW 3 -42 43 Left 2
SYMATTR InstName L2
SYMATTR Value 7.5µ
SYMATTR SpiceLine Rser=300
SYMBOL ind2 96 64 M180
WINDOW 0 -20 75 Left 2
WINDOW 3 -42 48 Left 2
SYMATTR InstName L1
SYMATTR Value 750µ
SYMATTR SpiceLine Rser=85m
SYMBOL current -496 -448 R0
WINDOW 3 24 28 Left 2
WINDOW 123 24 56 Left 2
WINDOW 39 0 0 Left 2
SYMATTR Value SINE(0 1.0e-6 2.59e5)
SYMATTR InstName I1
TEXT 760 424 Left 2 !.tran 0 1.0 0.0
TEXT 760 376 Left 2 !.ic V(OUT)=0.0
TEXT 136 -32 Center 2 !K1 L1 L2 1
TEXT -1008 -448 Left 2 !.param A=1e-4 FREQ=2.59e5
