Version 4
SHEET 1 1172 748
WIRE 32 -448 -176 -448
WIRE 176 -448 112 -448
WIRE 432 -448 320 -448
WIRE 640 -448 512 -448
WIRE 176 -416 176 -448
WIRE 208 -416 176 -416
WIRE 320 -416 320 -448
WIRE 320 -416 272 -416
WIRE -176 -400 -176 -448
WIRE 208 -352 128 -352
WIRE 368 -352 272 -352
WIRE 128 -304 128 -352
WIRE 128 -304 -176 -304
WIRE 368 -304 368 -352
WIRE 432 -304 368 -304
WIRE 432 -272 432 -304
WIRE 128 -240 128 -304
WIRE 208 -240 128 -240
WIRE 368 -240 368 -304
WIRE 368 -240 272 -240
WIRE -176 -64 -176 -304
WIRE -144 -64 -176 -64
WIRE 32 -64 -64 -64
WIRE 112 -64 32 -64
WIRE 112 -32 112 -64
WIRE 272 -32 160 -32
WIRE 288 -32 272 -32
WIRE 368 -32 352 -32
WIRE 672 -32 624 -32
WIRE 800 -32 672 -32
WIRE 976 -32 800 -32
WIRE 672 -16 672 -32
WIRE 272 64 272 -32
WIRE 288 64 272 64
WIRE 368 64 352 64
WIRE 672 64 672 48
WIRE 976 80 976 48
WIRE 160 96 160 48
WIRE 112 160 112 48
WIRE 368 160 112 160
WIRE 640 160 624 160
WIRE 672 160 640 160
WIRE 768 160 672 160
WIRE 880 160 768 160
WIRE 672 176 672 160
WIRE 976 192 976 160
WIRE 368 256 320 256
WIRE 640 256 640 160
WIRE 640 256 624 256
WIRE 672 256 672 240
WIRE 880 256 880 240
WIRE 368 352 352 352
WIRE 672 352 624 352
WIRE 672 368 672 352
WIRE 880 368 880 336
WIRE 320 448 320 256
WIRE 368 448 320 448
WIRE 640 448 624 448
WIRE 672 448 672 432
WIRE 320 464 320 448
WIRE 496 512 496 496
WIRE 320 544 320 528
FLAG 496 512 0
FLAG 320 544 0
FLAG 352 352 0
FLAG 672 64 0
FLAG 672 256 0
FLAG 672 448 0
FLAG 768 160 VPWRout
FLAG 32 -64 VPZTin
FLAG 160 96 0
FLAG 880 368 0
FLAG 976 192 0
FLAG 352 -32 VC1in
FLAG 352 64 VC2in
FLAG 432 -272 0
FLAG -176 -400 0
FLAG 800 -32 VSTORout
SYMBOL LTC3108 496 208 R0
SYMATTR InstName U1
SYMBOL cap 304 464 R0
SYMATTR InstName C7
SYMATTR Value 1µ
SYMBOL cap 288 -16 R270
WINDOW 0 32 32 VTop 2
WINDOW 3 0 32 VBottom 2
SYMATTR InstName C2
SYMATTR Value 1n
SYMBOL cap 288 80 R270
WINDOW 0 32 32 VTop 2
WINDOW 3 0 32 VBottom 2
SYMATTR InstName C3
SYMATTR Value 330p
SYMBOL cap 656 -16 R0
SYMATTR InstName C4
SYMATTR Value 1m
SYMBOL cap 656 176 R0
SYMATTR InstName C5
SYMATTR Value 470µ
SYMBOL cap 656 368 R0
SYMATTR InstName C6
SYMATTR Value 2.2µ
SYMBOL PiezoElement 240 -384 M180
SYMATTR InstName X1
SYMATTR Value L=0.58m S=A
SYMBOL SubstFin 480 -448 R0
WINDOW 0 -3 -64 Center 2
SYMATTR InstName PCB
SYMATTR Value L=1.5m S=A
SYMATTR Value2 d=rhopcb V=vpcb
SYMATTR SpiceLine Nv=1m F=FREQ
SYMBOL SubstInf 688 -448 R0
SYMATTR InstName X3
SYMATTR Value S=A
SYMATTR Value2 d=rhoair V=vair
SYMBOL voltage -160 -64 R270
WINDOW 0 -32 56 VBottom 2
WINDOW 3 32 56 VTop 2
WINDOW 123 0 0 Left 2
WINDOW 39 0 0 Left 2
SYMATTR InstName PZTin
SYMATTR Value 0
SYMBOL voltage 880 144 R0
WINDOW 0 24 96 Left 2
WINDOW 3 24 16 Left 2
WINDOW 123 0 0 Left 2
WINDOW 39 0 0 Left 2
SYMATTR InstName PWRout
SYMATTR Value 0
SYMBOL res 864 240 R0
SYMATTR InstName R1
SYMATTR Value 100K
SYMBOL voltage 976 -48 R0
WINDOW 0 24 96 Left 2
WINDOW 3 24 16 Left 2
WINDOW 123 0 0 Left 2
WINDOW 39 0 0 Left 2
SYMATTR InstName STORout
SYMATTR Value 0
SYMBOL res 960 64 R0
SYMATTR InstName R2
SYMATTR Value 100K
SYMBOL ind2 176 64 R180
WINDOW 0 2 76 Right 2
WINDOW 3 -42 43 Left 2
SYMATTR InstName L2
SYMATTR Value 750µ
SYMATTR SpiceLine Rser=300
SYMBOL ind2 96 64 M180
WINDOW 0 -20 75 Left 2
WINDOW 3 -42 48 Left 2
SYMATTR InstName L1
SYMATTR Value 7.5µ
SYMATTR SpiceLine Rser=85m
SYMBOL current 32 -448 R270
WINDOW 3 47 81 VLeft 2
WINDOW 123 24 56 Left 2
WINDOW 39 0 0 Left 2
WINDOW 0 75 79 VLeft 2
SYMATTR Value SINE(0 1.0e-6 0.503e6)
SYMATTR InstName SNDin
SYMBOL cap 272 -256 R90
WINDOW 0 0 32 VBottom 2
WINDOW 3 32 32 VTop 2
SYMATTR InstName CPZT
SYMATTR Value 10µ
TEXT -160 408 Left 2 !.tran 0 1m 0.0
TEXT -160 368 Left 2 !.ic V(OUT)=0.0
TEXT 136 -32 Center 2 !K1 L1 L2 1
TEXT -160 328 Left 2 !.param A=1e-4 FREQ=1.6e6
TEXT -160 248 Left 2 !.param vair=343 vpcb=4.5k
TEXT -160 288 Left 2 !.param rhoair=1.275 rhopcb=1.58k
TEXT 680 -512 Center 2 ;Air
