Version 4
SHEET 1 1568 748
WIRE -16 -480 -112 -480
WIRE 128 -480 64 -480
WIRE 336 -480 256 -480
WIRE 544 -480 416 -480
WIRE -112 -448 -112 -480
WIRE 128 -448 128 -480
WIRE 160 -448 128 -448
WIRE 256 -448 256 -480
WIRE 256 -448 224 -448
WIRE 160 -384 80 -384
WIRE 304 -384 224 -384
WIRE 80 -336 80 -384
WIRE 80 -336 -288 -336
WIRE 304 -336 304 -384
WIRE 368 -336 304 -336
WIRE 368 -304 368 -336
WIRE -288 -288 -288 -336
WIRE 80 -272 80 -336
WIRE 160 -272 80 -272
WIRE 304 -272 304 -336
WIRE 304 -272 224 -272
WIRE -288 -160 -288 -208
WIRE -288 -128 -288 -160
WIRE -256 -128 -288 -128
WIRE -80 -128 -176 -128
WIRE 48 -128 0 -128
WIRE 112 -128 48 -128
WIRE 464 -128 368 -128
WIRE 528 -128 464 -128
WIRE 576 -128 528 -128
WIRE 576 -112 576 -128
WIRE 48 -96 48 -128
WIRE 464 -96 464 -128
WIRE 48 0 48 -32
WIRE 464 0 464 -32
WIRE 240 16 240 -32
WIRE 576 32 576 -32
WIRE 576 128 576 112
FLAG -288 -160 VPZTin
FLAG 576 128 0
FLAG 464 0 0
FLAG -112 -448 0
FLAG 368 -304 0
FLAG 528 -128 VPWRout
FLAG 240 16 0
FLAG 48 0 0
SYMBOL PiezoElement 192 -416 M180
SYMATTR InstName X1
SYMATTR Value L=0.58m S=A
SYMBOL SubstFin 384 -480 R0
WINDOW 0 -3 -64 Center 2
SYMATTR InstName PCB
SYMATTR Value L=1.5m S=A
SYMATTR Value2 d=rhopcb V=vpcb
SYMATTR SpiceLine Nv=1m F=FREQ
SYMBOL SubstInf 592 -480 R0
SYMATTR InstName X3
SYMATTR Value S=A
SYMATTR Value2 d=rhoair V=vair
SYMBOL voltage -288 -304 R0
WINDOW 0 -32 56 VBottom 2
WINDOW 3 32 56 VTop 2
WINDOW 123 0 0 Left 2
WINDOW 39 0 0 Left 2
SYMATTR InstName PZTin
SYMATTR Value 0
SYMBOL voltage 576 -128 R0
WINDOW 0 24 96 Left 2
WINDOW 3 24 16 Left 2
WINDOW 123 0 0 Left 2
WINDOW 39 0 0 Left 2
SYMATTR InstName PWRout
SYMATTR Value 0
SYMBOL current -16 -480 R270
WINDOW 3 50 58 VLeft 2
WINDOW 123 20 63 VLeft 2
WINDOW 39 0 0 Left 2
WINDOW 0 76 60 VLeft 2
SYMATTR Value SINE(0 {sndamp} {freq})
SYMATTR InstName SNDin
SYMBOL cap 224 -288 R90
WINDOW 0 0 32 VBottom 2
WINDOW 3 32 32 VTop 2
SYMATTR InstName CPZT
SYMATTR Value {CPZT}
SYMBOL res 560 16 R0
SYMATTR InstName RLOAD
SYMATTR Value 100k
SYMBOL polcap 448 -96 R0
SYMATTR InstName COUT
SYMATTR Value 47µ
SYMBOL PowerProducts/LT1587-3.6 240 -128 R0
SYMATTR InstName U1
SYMBOL cap 32 -96 R0
SYMATTR InstName C1
SYMATTR Value 10p
SYMBOL res 16 -144 R90
WINDOW 0 0 56 VBottom 2
WINDOW 3 32 56 VTop 2
SYMATTR InstName RMATCH
SYMATTR Value {RMATCH}
SYMBOL ind -272 -112 R270
WINDOW 0 32 56 VTop 2
WINDOW 3 5 56 VBottom 2
SYMATTR InstName LMATCH
SYMATTR Value {LMATCH}
TEXT -288 224 Left 2 !.tran 10u
TEXT -288 128 Left 2 !.ic V(OUT)=0.0
TEXT -288 96 Left 2 !.param A=6.6e-6 freq=1.275meg sndamp=1.0u
TEXT 584 -544 Center 2 ;Air
TEXT -288 64 Left 2 !.param rhoair=1.275 rhopcb=1.58k
TEXT -288 32 Left 2 !.param vair=343 vpcb=4.5k
TEXT -288 160 Left 2 !.param CPZT=10n RMATCH=1/{{2*pi}*{freq*CPZT}}
TEXT -288 192 Left 2 !.param LMATCH=1/(pow({2*pi}*FREQ,2)*CPZT)
